Begin Options
   Major Iterations Limit    500000
   Iterations                500000
   Time limit                3600

   Major Print Level         01 * One line or more every major
   Minor Print Level          0 * One line         every minor subject to summary frequency

   Print   Frequency          1 * Print every itn
   Summary Frequency          0 * Print every itn

*  Verify Level               3

End Options
